Microgrid_test/Cabos.dss
New LineCode.16512320H-1P_1  nphases=1 BaseFreq=60  R1=0.975  X1=0.347 Units=km normamps=245
New LineCode.16512320H-1P_2  nphases=2 BaseFreq=60  R1=0.975  X1=0.347 Units=km normamps=245
New LineCode.16512320H-1P_3  nphases=3 BaseFreq=60  R1=0.975  X1=0.347 Units=km normamps=245
New LineCode.16512320H-1P_4  nphases=4 BaseFreq=60  R1=0.975  X1=0.347 Units=km normamps=245
New LineCode.16512354M-2P_1  nphases=1 BaseFreq=60  R1=1.369  X1=0.409 Units=km normamps=136
New LineCode.16512354M-2P_2  nphases=2 BaseFreq=60  R1=1.369  X1=0.409 Units=km normamps=136
New LineCode.16512354M-2P_3  nphases=3 BaseFreq=60  R1=1.369  X1=0.409 Units=km normamps=136
New LineCode.16512354M-2P_4  nphases=4 BaseFreq=60  R1=1.369  X1=0.409 Units=km normamps=136
New LineCode.16512352M-3P_1  nphases=1 BaseFreq=60  R1=2.179  X1=0.186 Units=km normamps=83
New LineCode.16512352M-3P_2  nphases=2 BaseFreq=60  R1=2.179  X1=0.186 Units=km normamps=83
New LineCode.16512352M-3P_3  nphases=3 BaseFreq=60  R1=2.179  X1=0.186 Units=km normamps=83
New LineCode.16512352M-3P_4  nphases=4 BaseFreq=60  R1=2.179  X1=0.186 Units=km normamps=83
New LineCode.16512356M-3P_1  nphases=1 BaseFreq=60  R1=0.991  X1=0.315 Units=km normamps=189
New LineCode.16512356M-3P_2  nphases=2 BaseFreq=60  R1=0.991  X1=0.315 Units=km normamps=189
New LineCode.16512356M-3P_3  nphases=3 BaseFreq=60  R1=0.991  X1=0.315 Units=km normamps=189
New LineCode.16512356M-3P_4  nphases=4 BaseFreq=60  R1=0.991  X1=0.315 Units=km normamps=189
New LineCode.16512384V-2P_1  nphases=1 BaseFreq=60  R1=0.306  X1=0.303 Units=km normamps=490
New LineCode.16512384V-2P_2  nphases=2 BaseFreq=60  R1=0.306  X1=0.303 Units=km normamps=490
New LineCode.16512384V-2P_3  nphases=3 BaseFreq=60  R1=0.306  X1=0.303 Units=km normamps=490
New LineCode.16512384V-2P_4  nphases=4 BaseFreq=60  R1=0.306  X1=0.303 Units=km normamps=490
New LineCode.114527V-2P_1  nphases=1 BaseFreq=60  R1=1.564  X1=0.465 Units=km normamps=104
New LineCode.114527V-2P_2  nphases=2 BaseFreq=60  R1=1.564  X1=0.465 Units=km normamps=104
New LineCode.114527V-2P_3  nphases=3 BaseFreq=60  R1=1.564  X1=0.465 Units=km normamps=104
New LineCode.114527V-2P_4  nphases=4 BaseFreq=60  R1=1.564  X1=0.465 Units=km normamps=104
New LineCode.16512351M-1P_1  nphases=1 BaseFreq=60  R1=2.179  X1=0.186 Units=km normamps=102
New LineCode.16512351M-1P_2  nphases=2 BaseFreq=60  R1=2.179  X1=0.186 Units=km normamps=102
New LineCode.16512351M-1P_3  nphases=3 BaseFreq=60  R1=2.179  X1=0.186 Units=km normamps=102
New LineCode.16512351M-1P_4  nphases=4 BaseFreq=60  R1=2.179  X1=0.186 Units=km normamps=102
New LineCode.16512345M-1P_1  nphases=1 BaseFreq=60  R1=3.514  X1=0.11 Units=km normamps=77
New LineCode.16512345M-1P_2  nphases=2 BaseFreq=60  R1=3.514  X1=0.11 Units=km normamps=77
New LineCode.16512345M-1P_3  nphases=3 BaseFreq=60  R1=3.514  X1=0.11 Units=km normamps=77
New LineCode.16512345M-1P_4  nphases=4 BaseFreq=60  R1=3.514  X1=0.11 Units=km normamps=77
New LineCode.16512334V-3P_1  nphases=1 BaseFreq=60  R1=2.469  X1=0.186 Units=km normamps=133
New LineCode.16512334V-3P_2  nphases=2 BaseFreq=60  R1=2.469  X1=0.186 Units=km normamps=133
New LineCode.16512334V-3P_3  nphases=3 BaseFreq=60  R1=2.469  X1=0.186 Units=km normamps=133
New LineCode.16512334V-3P_4  nphases=4 BaseFreq=60  R1=2.469  X1=0.186 Units=km normamps=133
New LineCode.16512325M-3P_1  nphases=1 BaseFreq=60  R1=0.613  X1=0.33 Units=km normamps=329
New LineCode.16512325M-3P_2  nphases=2 BaseFreq=60  R1=0.613  X1=0.33 Units=km normamps=329
New LineCode.16512325M-3P_3  nphases=3 BaseFreq=60  R1=0.613  X1=0.33 Units=km normamps=329
New LineCode.16512325M-3P_4  nphases=4 BaseFreq=60  R1=0.613  X1=0.33 Units=km normamps=329
New LineCode.16512353M-3P_1  nphases=1 BaseFreq=60  R1=1.369  X1=0.409 Units=km normamps=151
New LineCode.16512353M-3P_2  nphases=2 BaseFreq=60  R1=1.369  X1=0.409 Units=km normamps=151
New LineCode.16512353M-3P_3  nphases=3 BaseFreq=60  R1=1.369  X1=0.409 Units=km normamps=151
New LineCode.16512353M-3P_4  nphases=4 BaseFreq=60  R1=1.369  X1=0.409 Units=km normamps=151
New LineCode.16512357V-2P_1  nphases=1 BaseFreq=60  R1=0.991  X1=0.315 Units=km normamps=167
New LineCode.16512357V-2P_2  nphases=2 BaseFreq=60  R1=0.991  X1=0.315 Units=km normamps=167
New LineCode.16512357V-2P_3  nphases=3 BaseFreq=60  R1=0.991  X1=0.315 Units=km normamps=167
New LineCode.16512357V-2P_4  nphases=4 BaseFreq=60  R1=0.991  X1=0.315 Units=km normamps=167
New LineCode.16512381H-3P_1  nphases=1 BaseFreq=60  R1=0.486  X1=0.321 Units=km normamps=371
New LineCode.16512381H-3P_2  nphases=2 BaseFreq=60  R1=0.486  X1=0.321 Units=km normamps=371
New LineCode.16512381H-3P_3  nphases=3 BaseFreq=60  R1=0.486  X1=0.321 Units=km normamps=371
New LineCode.16512381H-3P_4  nphases=4 BaseFreq=60  R1=0.486  X1=0.321 Units=km normamps=371
New LineCode.45225708H-1P_1  nphases=1 BaseFreq=60  R1=2.287  X1=0.186 Units=km normamps=99
New LineCode.45225708H-1P_2  nphases=2 BaseFreq=60  R1=2.287  X1=0.186 Units=km normamps=99
New LineCode.45225708H-1P_3  nphases=3 BaseFreq=60  R1=2.287  X1=0.186 Units=km normamps=99
New LineCode.45225708H-1P_4  nphases=4 BaseFreq=60  R1=2.287  X1=0.186 Units=km normamps=99
New LineCode.16512384C-3P_1  nphases=1 BaseFreq=60  R1=0.306  X1=0.303 Units=km normamps=490
New LineCode.16512384C-3P_2  nphases=2 BaseFreq=60  R1=0.306  X1=0.303 Units=km normamps=490
New LineCode.16512384C-3P_3  nphases=3 BaseFreq=60  R1=0.306  X1=0.303 Units=km normamps=490
New LineCode.16512384C-3P_4  nphases=4 BaseFreq=60  R1=0.306  X1=0.303 Units=km normamps=490
New LineCode.16512332T-3P_1  nphases=1 BaseFreq=60  R1=1.551  X1=0.356 Units=km normamps=182
New LineCode.16512332T-3P_2  nphases=2 BaseFreq=60  R1=1.551  X1=0.356 Units=km normamps=182
New LineCode.16512332T-3P_3  nphases=3 BaseFreq=60  R1=1.551  X1=0.356 Units=km normamps=182
New LineCode.16512332T-3P_4  nphases=4 BaseFreq=60  R1=1.551  X1=0.356 Units=km normamps=182
New LineCode.45225709H-1P_1  nphases=1 BaseFreq=60  R1=0.386  X1=0.312 Units=km normamps=434
New LineCode.45225709H-1P_2  nphases=2 BaseFreq=60  R1=0.386  X1=0.312 Units=km normamps=434
New LineCode.45225709H-1P_3  nphases=3 BaseFreq=60  R1=0.386  X1=0.312 Units=km normamps=434
New LineCode.45225709H-1P_4  nphases=4 BaseFreq=60  R1=0.386  X1=0.312 Units=km normamps=434
New LineCode.45225709C-3P_1  nphases=1 BaseFreq=60  R1=0.386  X1=0.312 Units=km normamps=434
New LineCode.45225709C-3P_2  nphases=2 BaseFreq=60  R1=0.386  X1=0.312 Units=km normamps=434
New LineCode.45225709C-3P_3  nphases=3 BaseFreq=60  R1=0.386  X1=0.312 Units=km normamps=434
New LineCode.45225709C-3P_4  nphases=4 BaseFreq=60  R1=0.386  X1=0.312 Units=km normamps=434
New LineCode.16512345S-1P_1  nphases=1 BaseFreq=60  R1=3.514  X1=0.11 Units=km normamps=77
New LineCode.16512345S-1P_2  nphases=2 BaseFreq=60  R1=3.514  X1=0.11 Units=km normamps=77
New LineCode.16512345S-1P_3  nphases=3 BaseFreq=60  R1=3.514  X1=0.11 Units=km normamps=77
New LineCode.16512345S-1P_4  nphases=4 BaseFreq=60  R1=3.514  X1=0.11 Units=km normamps=77
New LineCode.16512367M-3P_1  nphases=1 BaseFreq=60  R1=0.506  X1=0.289 Units=km normamps=220
New LineCode.16512367M-3P_2  nphases=2 BaseFreq=60  R1=0.506  X1=0.289 Units=km normamps=220
New LineCode.16512367M-3P_3  nphases=3 BaseFreq=60  R1=0.506  X1=0.289 Units=km normamps=220
New LineCode.16512367M-3P_4  nphases=4 BaseFreq=60  R1=0.506  X1=0.289 Units=km normamps=220
New LineCode.16512325V-3P_1  nphases=1 BaseFreq=60  R1=0.613  X1=0.33 Units=km normamps=329
New LineCode.16512325V-3P_2  nphases=2 BaseFreq=60  R1=0.613  X1=0.33 Units=km normamps=329
New LineCode.16512325V-3P_3  nphases=3 BaseFreq=60  R1=0.613  X1=0.33 Units=km normamps=329
New LineCode.16512325V-3P_4  nphases=4 BaseFreq=60  R1=0.613  X1=0.33 Units=km normamps=329
New LineCode.16512356M-1P_1  nphases=1 BaseFreq=60  R1=0.991  X1=0.315 Units=km normamps=189
New LineCode.16512356M-1P_2  nphases=2 BaseFreq=60  R1=0.991  X1=0.315 Units=km normamps=189
New LineCode.16512356M-1P_3  nphases=3 BaseFreq=60  R1=0.991  X1=0.315 Units=km normamps=189
New LineCode.16512356M-1P_4  nphases=4 BaseFreq=60  R1=0.991  X1=0.315 Units=km normamps=189
New LineCode.16512320H-3P_1  nphases=1 BaseFreq=60  R1=0.975  X1=0.347 Units=km normamps=245
New LineCode.16512320H-3P_2  nphases=2 BaseFreq=60  R1=0.975  X1=0.347 Units=km normamps=245
New LineCode.16512320H-3P_3  nphases=3 BaseFreq=60  R1=0.975  X1=0.347 Units=km normamps=245
New LineCode.16512320H-3P_4  nphases=4 BaseFreq=60  R1=0.975  X1=0.347 Units=km normamps=245
New LineCode.114528M-3P_1  nphases=1 BaseFreq=60  R1=1.369  X1=0.409 Units=km normamps=112
New LineCode.114528M-3P_2  nphases=2 BaseFreq=60  R1=1.369  X1=0.409 Units=km normamps=112
New LineCode.114528M-3P_3  nphases=3 BaseFreq=60  R1=1.369  X1=0.409 Units=km normamps=112
New LineCode.114528M-3P_4  nphases=4 BaseFreq=60  R1=1.369  X1=0.409 Units=km normamps=112
New LineCode.16512323M-1P_1  nphases=1 BaseFreq=60  R1=2.179  X1=0.186 Units=km normamps=120
New LineCode.16512323M-1P_2  nphases=2 BaseFreq=60  R1=2.179  X1=0.186 Units=km normamps=120
New LineCode.16512323M-1P_3  nphases=3 BaseFreq=60  R1=2.179  X1=0.186 Units=km normamps=120
New LineCode.16512323M-1P_4  nphases=4 BaseFreq=60  R1=2.179  X1=0.186 Units=km normamps=120
New LineCode.16512351M-2P_1  nphases=1 BaseFreq=60  R1=2.179  X1=0.186 Units=km normamps=102
New LineCode.16512351M-2P_2  nphases=2 BaseFreq=60  R1=2.179  X1=0.186 Units=km normamps=102
New LineCode.16512351M-2P_3  nphases=3 BaseFreq=60  R1=2.179  X1=0.186 Units=km normamps=102
New LineCode.16512351M-2P_4  nphases=4 BaseFreq=60  R1=2.179  X1=0.186 Units=km normamps=102
New LineCode.16512327V-2P_1  nphases=1 BaseFreq=60  R1=0.486  X1=0.321 Units=km normamps=378
New LineCode.16512327V-2P_2  nphases=2 BaseFreq=60  R1=0.486  X1=0.321 Units=km normamps=378
New LineCode.16512327V-2P_3  nphases=3 BaseFreq=60  R1=0.486  X1=0.321 Units=km normamps=378
New LineCode.16512327V-2P_4  nphases=4 BaseFreq=60  R1=0.486  X1=0.321 Units=km normamps=378
New LineCode.16512325H-3P_1  nphases=1 BaseFreq=60  R1=0.613  X1=0.33 Units=km normamps=329
New LineCode.16512325H-3P_2  nphases=2 BaseFreq=60  R1=0.613  X1=0.33 Units=km normamps=329
New LineCode.16512325H-3P_3  nphases=3 BaseFreq=60  R1=0.613  X1=0.33 Units=km normamps=329
New LineCode.16512325H-3P_4  nphases=4 BaseFreq=60  R1=0.613  X1=0.33 Units=km normamps=329
New LineCode.16512357M-1P_1  nphases=1 BaseFreq=60  R1=0.991  X1=0.315 Units=km normamps=167
New LineCode.16512357M-1P_2  nphases=2 BaseFreq=60  R1=0.991  X1=0.315 Units=km normamps=167
New LineCode.16512357M-1P_3  nphases=3 BaseFreq=60  R1=0.991  X1=0.315 Units=km normamps=167
New LineCode.16512357M-1P_4  nphases=4 BaseFreq=60  R1=0.991  X1=0.315 Units=km normamps=167
New LineCode.90873V-1P_1  nphases=1 BaseFreq=60  R1=0.019  X1=0.475 Units=km normamps=50
New LineCode.90873V-1P_2  nphases=2 BaseFreq=60  R1=0.019  X1=0.475 Units=km normamps=50
New LineCode.90873V-1P_3  nphases=3 BaseFreq=60  R1=0.019  X1=0.475 Units=km normamps=50
New LineCode.90873V-1P_4  nphases=4 BaseFreq=60  R1=0.019  X1=0.475 Units=km normamps=50
New LineCode.16512358V-3P_1  nphases=1 BaseFreq=60  R1=0.991  X1=0.315 Units=km normamps=140
New LineCode.16512358V-3P_2  nphases=2 BaseFreq=60  R1=0.991  X1=0.315 Units=km normamps=140
New LineCode.16512358V-3P_3  nphases=3 BaseFreq=60  R1=0.991  X1=0.315 Units=km normamps=140
New LineCode.16512358V-3P_4  nphases=4 BaseFreq=60  R1=0.991  X1=0.315 Units=km normamps=140
New LineCode.16512358C-3P_1  nphases=1 BaseFreq=60  R1=0.991  X1=0.315 Units=km normamps=140
New LineCode.16512358C-3P_2  nphases=2 BaseFreq=60  R1=0.991  X1=0.315 Units=km normamps=140
New LineCode.16512358C-3P_3  nphases=3 BaseFreq=60  R1=0.991  X1=0.315 Units=km normamps=140
New LineCode.16512358C-3P_4  nphases=4 BaseFreq=60  R1=0.991  X1=0.315 Units=km normamps=140
New LineCode.1103558V-1P_1  nphases=1 BaseFreq=60  R1=0.62  X1=0.445 Units=km normamps=245
New LineCode.1103558V-1P_2  nphases=2 BaseFreq=60  R1=0.62  X1=0.445 Units=km normamps=245
New LineCode.1103558V-1P_3  nphases=3 BaseFreq=60  R1=0.62  X1=0.445 Units=km normamps=245
New LineCode.1103558V-1P_4  nphases=4 BaseFreq=60  R1=0.62  X1=0.445 Units=km normamps=245
New LineCode.16512380H-3P_1  nphases=1 BaseFreq=60  R1=0.613  X1=0.33 Units=km normamps=322
New LineCode.16512380H-3P_2  nphases=2 BaseFreq=60  R1=0.613  X1=0.33 Units=km normamps=322
New LineCode.16512380H-3P_3  nphases=3 BaseFreq=60  R1=0.613  X1=0.33 Units=km normamps=322
New LineCode.16512380H-3P_4  nphases=4 BaseFreq=60  R1=0.613  X1=0.33 Units=km normamps=322
New LineCode.90872H-1P_1  nphases=1 BaseFreq=60  R1=0.654  X1=0.052 Units=km normamps=404
New LineCode.90872H-1P_2  nphases=2 BaseFreq=60  R1=0.654  X1=0.052 Units=km normamps=404
New LineCode.90872H-1P_3  nphases=3 BaseFreq=60  R1=0.654  X1=0.052 Units=km normamps=404
New LineCode.90872H-1P_4  nphases=4 BaseFreq=60  R1=0.654  X1=0.052 Units=km normamps=404
New LineCode.90867H-3P_1  nphases=1 BaseFreq=60  R1=0.506  X1=0.144 Units=km normamps=332
New LineCode.90867H-3P_2  nphases=2 BaseFreq=60  R1=0.506  X1=0.144 Units=km normamps=332
New LineCode.90867H-3P_3  nphases=3 BaseFreq=60  R1=0.506  X1=0.144 Units=km normamps=332
New LineCode.90867H-3P_4  nphases=4 BaseFreq=60  R1=0.506  X1=0.144 Units=km normamps=332
New LineCode.114544H-3P_1  nphases=1 BaseFreq=60  R1=0.252  X1=0.233 Units=km normamps=330
New LineCode.114544H-3P_2  nphases=2 BaseFreq=60  R1=0.252  X1=0.233 Units=km normamps=330
New LineCode.114544H-3P_3  nphases=3 BaseFreq=60  R1=0.252  X1=0.233 Units=km normamps=330
New LineCode.114544H-3P_4  nphases=4 BaseFreq=60  R1=0.252  X1=0.233 Units=km normamps=330
New LineCode.16512322V-3P_1  nphases=1 BaseFreq=60  R1=1.551  X1=0.356 Units=km normamps=182
New LineCode.16512322V-3P_2  nphases=2 BaseFreq=60  R1=1.551  X1=0.356 Units=km normamps=182
New LineCode.16512322V-3P_3  nphases=3 BaseFreq=60  R1=1.551  X1=0.356 Units=km normamps=182
New LineCode.16512322V-3P_4  nphases=4 BaseFreq=60  R1=1.551  X1=0.356 Units=km normamps=182
New LineCode.16512358M-2P_1  nphases=1 BaseFreq=60  R1=0.991  X1=0.315 Units=km normamps=140
New LineCode.16512358M-2P_2  nphases=2 BaseFreq=60  R1=0.991  X1=0.315 Units=km normamps=140
New LineCode.16512358M-2P_3  nphases=3 BaseFreq=60  R1=0.991  X1=0.315 Units=km normamps=140
New LineCode.16512358M-2P_4  nphases=4 BaseFreq=60  R1=0.991  X1=0.315 Units=km normamps=140
New LineCode.114527V-1P_1  nphases=1 BaseFreq=60  R1=1.564  X1=0.465 Units=km normamps=104
New LineCode.114527V-1P_2  nphases=2 BaseFreq=60  R1=1.564  X1=0.465 Units=km normamps=104
New LineCode.114527V-1P_3  nphases=3 BaseFreq=60  R1=1.564  X1=0.465 Units=km normamps=104
New LineCode.114527V-1P_4  nphases=4 BaseFreq=60  R1=1.564  X1=0.465 Units=km normamps=104
New LineCode.16512367V-3P_1  nphases=1 BaseFreq=60  R1=0.506  X1=0.289 Units=km normamps=220
New LineCode.16512367V-3P_2  nphases=2 BaseFreq=60  R1=0.506  X1=0.289 Units=km normamps=220
New LineCode.16512367V-3P_3  nphases=3 BaseFreq=60  R1=0.506  X1=0.289 Units=km normamps=220
New LineCode.16512367V-3P_4  nphases=4 BaseFreq=60  R1=0.506  X1=0.289 Units=km normamps=220
New LineCode.16512351M-3P_1  nphases=1 BaseFreq=60  R1=2.179  X1=0.186 Units=km normamps=102
New LineCode.16512351M-3P_2  nphases=2 BaseFreq=60  R1=2.179  X1=0.186 Units=km normamps=102
New LineCode.16512351M-3P_3  nphases=3 BaseFreq=60  R1=2.179  X1=0.186 Units=km normamps=102
New LineCode.16512351M-3P_4  nphases=4 BaseFreq=60  R1=2.179  X1=0.186 Units=km normamps=102
New LineCode.45225721M-3P_1  nphases=1 BaseFreq=60  R1=0.441  X1=0.109 Units=km normamps=339
New LineCode.45225721M-3P_2  nphases=2 BaseFreq=60  R1=0.441  X1=0.109 Units=km normamps=339
New LineCode.45225721M-3P_3  nphases=3 BaseFreq=60  R1=0.441  X1=0.109 Units=km normamps=339
New LineCode.45225721M-3P_4  nphases=4 BaseFreq=60  R1=0.441  X1=0.109 Units=km normamps=339
New LineCode.16512322H-2P_1  nphases=1 BaseFreq=60  R1=1.551  X1=0.356 Units=km normamps=182
New LineCode.16512322H-2P_2  nphases=2 BaseFreq=60  R1=1.551  X1=0.356 Units=km normamps=182
New LineCode.16512322H-2P_3  nphases=3 BaseFreq=60  R1=1.551  X1=0.356 Units=km normamps=182
New LineCode.16512322H-2P_4  nphases=4 BaseFreq=60  R1=1.551  X1=0.356 Units=km normamps=182
New LineCode.1103558H-3P_1  nphases=1 BaseFreq=60  R1=0.62  X1=0.445 Units=km normamps=245
New LineCode.1103558H-3P_2  nphases=2 BaseFreq=60  R1=0.62  X1=0.445 Units=km normamps=245
New LineCode.1103558H-3P_3  nphases=3 BaseFreq=60  R1=0.62  X1=0.445 Units=km normamps=245
New LineCode.1103558H-3P_4  nphases=4 BaseFreq=60  R1=0.62  X1=0.445 Units=km normamps=245
New LineCode.16512375H-3P_1  nphases=1 BaseFreq=60  R1=0.195  X1=0.291 Units=km normamps=693
New LineCode.16512375H-3P_2  nphases=2 BaseFreq=60  R1=0.195  X1=0.291 Units=km normamps=693
New LineCode.16512375H-3P_3  nphases=3 BaseFreq=60  R1=0.195  X1=0.291 Units=km normamps=693
New LineCode.16512375H-3P_4  nphases=4 BaseFreq=60  R1=0.195  X1=0.291 Units=km normamps=693
New LineCode.172211H-3P_1  nphases=1 BaseFreq=60  R1=0.188  X1=0.38 Units=km normamps=626
New LineCode.172211H-3P_2  nphases=2 BaseFreq=60  R1=0.188  X1=0.38 Units=km normamps=626
New LineCode.172211H-3P_3  nphases=3 BaseFreq=60  R1=0.188  X1=0.38 Units=km normamps=626
New LineCode.172211H-3P_4  nphases=4 BaseFreq=60  R1=0.188  X1=0.38 Units=km normamps=626
New LineCode.16512376H-3P_1  nphases=1 BaseFreq=60  R1=0.195  X1=0.291 Units=km normamps=693
New LineCode.16512376H-3P_2  nphases=2 BaseFreq=60  R1=0.195  X1=0.291 Units=km normamps=693
New LineCode.16512376H-3P_3  nphases=3 BaseFreq=60  R1=0.195  X1=0.291 Units=km normamps=693
New LineCode.16512376H-3P_4  nphases=4 BaseFreq=60  R1=0.195  X1=0.291 Units=km normamps=693
New LineCode.90870C-3P_1  nphases=1 BaseFreq=60  R1=0.289  X1=0.271 Units=km normamps=472
New LineCode.90870C-3P_2  nphases=2 BaseFreq=60  R1=0.289  X1=0.271 Units=km normamps=472
New LineCode.90870C-3P_3  nphases=3 BaseFreq=60  R1=0.289  X1=0.271 Units=km normamps=472
New LineCode.90870C-3P_4  nphases=4 BaseFreq=60  R1=0.289  X1=0.271 Units=km normamps=472
New LineCode.90866H-3P_1  nphases=1 BaseFreq=60  R1=0.739  X1=0.106 Units=km normamps=225
New LineCode.90866H-3P_2  nphases=2 BaseFreq=60  R1=0.739  X1=0.106 Units=km normamps=225
New LineCode.90866H-3P_3  nphases=3 BaseFreq=60  R1=0.739  X1=0.106 Units=km normamps=225
New LineCode.90866H-3P_4  nphases=4 BaseFreq=60  R1=0.739  X1=0.106 Units=km normamps=225
...
