Microgrid_test/SegmentosBT.dss
New Line.56_127_BTUB  Phases=4  Bus1=BT1575.1.2.3.4  Bus2=BT1576.1.2.3.4   LineCode=16512320V-3_4  Length=0.03272  Units=km
New Line.56_241_BTUB  Phases=4  Bus1=BT1306.1.2.3.4  Bus2=BT1716.1.2.3.4   LineCode=16512325V-3_4  Length=0.01241  Units=km
New Line.56_242_BTUB  Phases=4  Bus1=BT1716.1.2.3.4  Bus2=BT1717.1.2.3.4   LineCode=16512325V-3_4  Length=0.02451  Units=km
New Line.56_243_BTUB  Phases=4  Bus1=BT1716.1.2.3.4  Bus2=BT1718.1.2.3.4   LineCode=16512320V-3_4  Length=0.02279  Units=km
New Line.56_319_BTUB  Phases=4  Bus1=BT1808.1.2.3.4  Bus2=BT1809.1.2.3.4   LineCode=16512320V-3_4  Length=0.04126  Units=km
New Line.56_341_BTUB  Phases=4  Bus1=BT1306.1.2.3.4  Bus2=BT1840.1.2.3.4   LineCode=16512325V-3_4  Length=0.03902  Units=km
New Line.56_413_BTUB  Phases=4  Bus1=BT1718.1.2.3.4  Bus2=BT1922.1.2.3.4   LineCode=16512320V-3_4  Length=0.0395  Units=km
New Line.56_414_BTUB  Phases=4  Bus1=BT1923.1.2.3.4  Bus2=BT1924.1.2.3.4   LineCode=16512320V-3_4  Length=0.03464  Units=km
New Line.56_762_BTUB  Phases=4  Bus1=BT2332.1.2.3.4  Bus2=BT1808.1.2.3.4   LineCode=16512320V-3_4  Length=0.03526  Units=km
New Line.56_884_BTUB  Phases=4  Bus1=BT2439.1.2.3.4  Bus2=BT2440.1.2.3.4   LineCode=16512320V-3_4  Length=0.01079  Units=km
New Line.56_885_BTUB  Phases=4  Bus1=BT2440.1.2.3.4  Bus2=BT2441.1.2.3.4   LineCode=16512320V-3_4  Length=0.02487  Units=km
New Line.56_886_BTUB  Phases=4  Bus1=BT2440.1.2.3.4  Bus2=BT2442.1.2.3.4   LineCode=16512320V-3_4  Length=0.01866  Units=km
New Line.56_887_BTUB  Phases=4  Bus1=BT2440.1.2.3.4  Bus2=BT2443.1.2.3.4   LineCode=16512320V-3_4  Length=0.00897  Units=km
New Line.56_904_BTUB  Phases=4  Bus1=BT2461.1.2.3.4  Bus2=BT2462.1.2.3.4   LineCode=16512320V-3_4  Length=0.01908  Units=km
New Line.56_905_BTUB  Phases=4  Bus1=BT2461.1.2.3.4  Bus2=BT2463.1.2.3.4   LineCode=16512320V-3_4  Length=0.01504  Units=km
New Line.56_906_BTUB  Phases=4  Bus1=BT1924.1.2.3.4  Bus2=BT2461.1.2.3.4   LineCode=16512320V-3_4  Length=0.02266  Units=km
New Line.56_907_BTUB  Phases=4  Bus1=BT2461.1.2.3.4  Bus2=BT2464.1.2.3.4   LineCode=16512320V-3_4  Length=0.00869  Units=km
New Line.56_1147_BTUB  Phases=4  Bus1=BT1717.1.2.3.4  Bus2=BT2439.1.2.3.4   LineCode=16512320V-3_4  Length=0.03605  Units=km
New Line.56_1148_BTUB  Phases=4  Bus1=BT2441.1.2.3.4  Bus2=BT2676.1.2.3.4   LineCode=16512320V-3_4  Length=0.04079  Units=km
New Line.56_1149_BTUB  Phases=4  Bus1=BT2676.1.2.3.4  Bus2=BT2677.1.2.3.4   LineCode=16512320V-3_4  Length=0.03706  Units=km
New Line.56_1156_BTUB  Phases=4  Bus1=BT2442.1.2.3.4  Bus2=BT2683.1.2.3.4   LineCode=16512320V-3_4  Length=0.03396  Units=km
New Line.56_1218_BTUB  Phases=4  Bus1=BT2737.1.2.3.4  Bus2=BT2738.1.2.3.4   LineCode=16512320V-3_4  Length=0.01063  Units=km
New Line.56_1219_BTUB  Phases=4  Bus1=BT2737.1.2.3.4  Bus2=BT1575.1.2.3.4   LineCode=16512320V-3_4  Length=0.02403  Units=km
New Line.56_1220_BTUB  Phases=4  Bus1=BT1716.1.2.3.4  Bus2=BT1923.1.2.3.4   LineCode=16512320V-3_4  Length=0.01913  Units=km
New Line.56_1221_BTUB  Phases=4  Bus1=BT1840.1.2.3.4  Bus2=BT2737.1.2.3.4   LineCode=16512325V-3_4  Length=0.03117  Units=km
New Line.56_1222_BTUB  Phases=4  Bus1=BT2737.1.2.3.4  Bus2=BT2332.1.2.3.4   LineCode=16512325V-3_4  Length=0.00814  Units=km
New Line.56_1572_RLUB  Phases=3  Bus1=BT1809.3.1.4  Bus2=BT2967.3.1.4   LineCode=16512345M-2_3  Length=0.0105  Units=km
New Line.56_1596_RLUB  Phases=2  Bus1=BT2332.3.4  Bus2=BT2991.3.4   LineCode=114530M-1_2  Length=0.01431  Units=km
New Line.56_1617_BTUB  Phases=4  Bus1=BT1306.1.2.3.4  Bus2=BT3012.1.2.3.4   LineCode=114530M-3_4  Length=0.01143  Units=km
New Line.56_1620_BTUB  Phases=4  Bus1=BT1306.1.2.3.4  Bus2=BT3015.1.2.3.4   LineCode=114530M-3_4  Length=0.01143  Units=km
New Line.56_1726_RLUB  Phases=2  Bus1=BT2439.1.4  Bus2=BT3121.1.4   LineCode=114530M-1_2  Length=0.00595  Units=km
New Line.56_1772_RLUB  Phases=2  Bus1=BT2464.1.4  Bus2=BT3167.1.4   LineCode=16512345M-1_2  Length=0.01413  Units=km
New Line.56_1827_RLUB  Phases=2  Bus1=BT2676.1.4  Bus2=BT3222.1.4   LineCode=114530M-1_2  Length=0.0124  Units=km
New Line.56_2002_RLUB  Phases=3  Bus1=BT2441.1.2.4  Bus2=BT3397.1.2.4   LineCode=16512345M-2_3  Length=0.01632  Units=km
New Line.56_2111_RLUB  Phases=4  Bus1=BT2332.1.2.3.4  Bus2=BT3505.1.2.3.4   LineCode=114528M-3_4  Length=0.01082  Units=km
New Line.56_2215_RLUB  Phases=2  Bus1=BT2464.1.4  Bus2=BT3609.1.4   LineCode=114530M-1_2  Length=0.00667  Units=km
New Line.56_2404_RLUB  Phases=2  Bus1=BT2439.1.4  Bus2=BT3797.1.4   LineCode=114530M-1_2  Length=0.01549  Units=km
New Line.56_2469_RLUB  Phases=2  Bus1=BT2676.3.4  Bus2=BT3862.3.4   LineCode=114530M-1_2  Length=0.00751  Units=km
New Line.56_2560_RLUB  Phases=2  Bus1=BT2439.2.4  Bus2=BT3951.2.4   LineCode=114530M-1_2  Length=0.00904  Units=km
New Line.56_2567_RLUB  Phases=2  Bus1=BT2441.1.4  Bus2=BT3958.1.4   LineCode=114530M-1_2  Length=0.00495  Units=km
New Line.56_2621_RLUB  Phases=2  Bus1=BT1717.2.4  Bus2=BT4012.2.4   LineCode=114530M-1_2  Length=0.00719  Units=km
New Line.56_2635_RLUB  Phases=2  Bus1=BT2677.1.4  Bus2=BT4026.1.4   LineCode=114530M-1_2  Length=0.01641  Units=km
New Line.56_2640_RLUB  Phases=2  Bus1=BT1717.3.4  Bus2=BT4031.3.4   LineCode=114530M-1_2  Length=0.01124  Units=km
New Line.56_2648_RLUB  Phases=2  Bus1=BT1809.2.4  Bus2=BT4039.2.4   LineCode=114530M-1_2  Length=0.01282  Units=km
New Line.56_2692_RLUB  Phases=2  Bus1=BT2677.1.4  Bus2=BT4082.1.4   LineCode=114530M-1_2  Length=0.0082  Units=km
New Line.56_2698_RLUB  Phases=4  Bus1=BT2676.1.2.3.4  Bus2=BT4088.1.2.3.4   LineCode=114528M-3_4  Length=0.01169  Units=km
New Line.56_2742_RLUB  Phases=4  Bus1=BT2738.1.2.3.4  Bus2=BT4132.1.2.3.4   LineCode=114528M-3_4  Length=0.00523  Units=km
New Line.56_2813_BTUB  Phases=4  Bus1=BT1306.1.2.3.4  Bus2=BT4202.1.2.3.4   LineCode=114530M-1_4  Length=0.01707  Units=km
New Line.56_2895_RLUB  Phases=2  Bus1=BT1717.2.4  Bus2=BT4284.2.4   LineCode=114530M-1_2  Length=0.01124  Units=km
New Line.56_3062_RLUB  Phases=2  Bus1=BT1718.2.4  Bus2=BT4446.2.4   LineCode=114530M-1_2  Length=0.00275  Units=km
New Line.56_4050_RLUB  Phases=2  Bus1=BT2676.3.4  Bus2=BT5433.3.4   LineCode=114530M-1_2  Length=0.00735  Units=km
New Line.56_4054_RLUB  Phases=2  Bus1=BT2677.1.4  Bus2=BT5437.1.4   LineCode=114530M-1_2  Length=0.02047  Units=km
New Line.56_4166_RLUB  Phases=2  Bus1=BT1840.2.4  Bus2=BT5548.2.4   LineCode=114530M-1_2  Length=0.01364  Units=km
New Line.56_4791_RLUB  Phases=2  Bus1=BT2443.2.4  Bus2=BT6170.2.4   LineCode=114530M-1_2  Length=0.00435  Units=km
New Line.56_5179_RLUB  Phases=2  Bus1=BT1809.1.4  Bus2=BT6558.1.4   LineCode=114528M-1_2  Length=0.0127  Units=km
