Microgrid_test/CargaBT.dss
New Load.BT_56_1429581_M2UB Bus1=BT4446.2.4 phases=1 conn=wye Model=2 kV=0.219 kW=0.637 pf=0.92 Vminpu=0.92 Vmaxpu=1.50 daily=RES_5_Dia_Util status=variable 
New Load.BT_56_1429581_M3UB Bus1=BT4446.2.4 phases=1 conn=wye Model=3 kV=0.219 kW=0.637 pf=0.92 Vminpu=0.92 Vmaxpu=1.50 daily=RES_5_Dia_Util status=variable 
New Load.BT_56_1429581_MedUB Bus1=BT4446.2.4 phases=1 conn=wye Model=3 kV=0.219 kW=0.001 pf=1.0 Vminpu=0.92 Vmaxpu=1.50 daily=Flat status=variable 
New Load.BT_56_2905023_M2UB Bus1=BT4284.2.4 phases=1 conn=wye Model=2 kV=0.219 kW=0.144 pf=0.92 Vminpu=0.92 Vmaxpu=1.50 daily=RES_6_Dia_Util status=variable 
New Load.BT_56_2905023_M3UB Bus1=BT4284.2.4 phases=1 conn=wye Model=3 kV=0.219 kW=0.144 pf=0.92 Vminpu=0.92 Vmaxpu=1.50 daily=RES_6_Dia_Util status=variable 
New Load.BT_56_2905023_MedUB Bus1=BT4284.2.4 phases=1 conn=wye Model=3 kV=0.219 kW=0.0005 pf=1.0 Vminpu=0.92 Vmaxpu=1.50 daily=Flat status=variable 
New Load.BT_56_2934560_M2UB Bus1=BT3015.1.2.3.4 phases=3 conn=Delta Model=2 kV=0.38 kW=1.085 pf=0.92 Vminpu=0.92 Vmaxpu=1.50 daily=RES_6_Dia_Util status=variable 
New Load.BT_56_2934560_M3UB Bus1=BT3015.1.2.3.4 phases=3 conn=Delta Model=3 kV=0.38 kW=1.085 pf=0.92 Vminpu=0.92 Vmaxpu=1.50 daily=RES_6_Dia_Util status=variable 
New Load.BT_56_2934560_MedUB Bus1=BT3015.1.2.3.4 phases=3 conn=Delta Model=3 kV=0.38 kW=0.003 pf=1.0 Vminpu=0.92 Vmaxpu=1.50 daily=Flat status=variable 
New Load.BT_56_2961593_M2UB Bus1=BT3012.1.2.3.4 phases=3 conn=Delta Model=2 kV=0.38 kW=0.323 pf=0.92 Vminpu=0.92 Vmaxpu=1.50 daily=RES_6_Dia_Util status=variable 
New Load.BT_56_2961593_M3UB Bus1=BT3012.1.2.3.4 phases=3 conn=Delta Model=3 kV=0.38 kW=0.323 pf=0.92 Vminpu=0.92 Vmaxpu=1.50 daily=RES_6_Dia_Util status=variable 
New Load.BT_56_2961593_MedUB Bus1=BT3012.1.2.3.4 phases=3 conn=Delta Model=3 kV=0.38 kW=0.003 pf=1.0 Vminpu=0.92 Vmaxpu=1.50 daily=Flat status=variable 
New Load.BT_56_2965574_M2UB Bus1=BT3167.1.4 phases=1 conn=wye Model=2 kV=0.219 kW=0.218 pf=0.92 Vminpu=0.92 Vmaxpu=1.50 daily=RES_6_Dia_Util status=variable 
New Load.BT_56_2965574_M3UB Bus1=BT3167.1.4 phases=1 conn=wye Model=3 kV=0.219 kW=0.218 pf=0.92 Vminpu=0.92 Vmaxpu=1.50 daily=RES_6_Dia_Util status=variable 
New Load.BT_56_2965574_MedUB Bus1=BT3167.1.4 phases=1 conn=wye Model=3 kV=0.219 kW=0.001 pf=1.0 Vminpu=0.92 Vmaxpu=1.50 daily=Flat status=variable 
New Load.BT_56_3125699_M2UB Bus1=BT4012.2.4 phases=1 conn=wye Model=2 kV=0.219 kW=0.096 pf=0.92 Vminpu=0.92 Vmaxpu=1.50 daily=RES_8_Dia_Util status=variable 
New Load.BT_56_3125699_M3UB Bus1=BT4012.2.4 phases=1 conn=wye Model=3 kV=0.219 kW=0.096 pf=0.92 Vminpu=0.92 Vmaxpu=1.50 daily=RES_8_Dia_Util status=variable 
New Load.BT_56_3125699_MedUB Bus1=BT4012.2.4 phases=1 conn=wye Model=3 kV=0.219 kW=0.001 pf=1.0 Vminpu=0.92 Vmaxpu=1.50 daily=Flat status=variable 
New Load.BT_56_313117_M2UB Bus1=BT4082.1.4 phases=1 conn=wye Model=2 kV=0.219 kW=0.094 pf=0.92 Vminpu=0.92 Vmaxpu=1.50 daily=RES_2_Dia_Util status=variable 
New Load.BT_56_313117_M3UB Bus1=BT4082.1.4 phases=1 conn=wye Model=3 kV=0.219 kW=0.094 pf=0.92 Vminpu=0.92 Vmaxpu=1.50 daily=RES_2_Dia_Util status=variable 
New Load.BT_56_313117_MedUB Bus1=BT4082.1.4 phases=1 conn=wye Model=3 kV=0.219 kW=0.001 pf=1.0 Vminpu=0.92 Vmaxpu=1.50 daily=Flat status=variable 
New Load.BT_56_3246036_M2UB Bus1=BT3958.1.4 phases=1 conn=wye Model=2 kV=0.219 kW=0.192 pf=0.92 Vminpu=0.92 Vmaxpu=1.50 daily=RES_10_Dia_Util status=variable 
New Load.BT_56_3246036_M3UB Bus1=BT3958.1.4 phases=1 conn=wye Model=3 kV=0.219 kW=0.192 pf=0.92 Vminpu=0.92 Vmaxpu=1.50 daily=RES_10_Dia_Util status=variable 
New Load.BT_56_3246036_MedUB Bus1=BT3958.1.4 phases=1 conn=wye Model=3 kV=0.219 kW=0.001 pf=1.0 Vminpu=0.92 Vmaxpu=1.50 daily=Flat status=variable 
New Load.BT_56_3277108_M2UB Bus1=BT4026.1.4 phases=1 conn=wye Model=2 kV=0.219 kW=0.16 pf=0.92 Vminpu=0.92 Vmaxpu=1.50 daily=RES_10_Dia_Util status=variable 
New Load.BT_56_3277108_M3UB Bus1=BT4026.1.4 phases=1 conn=wye Model=3 kV=0.219 kW=0.16 pf=0.92 Vminpu=0.92 Vmaxpu=1.50 daily=RES_10_Dia_Util status=variable 
New Load.BT_56_3277108_MedUB Bus1=BT4026.1.4 phases=1 conn=wye Model=3 kV=0.219 kW=0.001 pf=1.0 Vminpu=0.92 Vmaxpu=1.50 daily=Flat status=variable 
New Load.BT_56_3278650_M2UB Bus1=BT3015.1.2.3.4 phases=3 conn=Delta Model=2 kV=0.38 kW=0.178 pf=0.92 Vminpu=0.92 Vmaxpu=1.50 daily=RES_10_Dia_Util status=variable 
New Load.BT_56_3278650_M3UB Bus1=BT3015.1.2.3.4 phases=3 conn=Delta Model=3 kV=0.38 kW=0.178 pf=0.92 Vminpu=0.92 Vmaxpu=1.50 daily=RES_10_Dia_Util status=variable 
New Load.BT_56_3278650_MedUB Bus1=BT3015.1.2.3.4 phases=3 conn=Delta Model=3 kV=0.38 kW=0.003 pf=1.0 Vminpu=0.92 Vmaxpu=1.50 daily=Flat status=variable 
New Load.BT_56_328772_M2UB Bus1=BT4088.1.2.3.4 phases=3 conn=Delta Model=2 kV=0.38 kW=1.149 pf=0.92 Vminpu=0.92 Vmaxpu=1.50 daily=RES_2_Dia_Util status=variable 
New Load.BT_56_328772_M3UB Bus1=BT4088.1.2.3.4 phases=3 conn=Delta Model=3 kV=0.38 kW=1.149 pf=0.92 Vminpu=0.92 Vmaxpu=1.50 daily=RES_2_Dia_Util status=variable 
New Load.BT_56_328772_MedUB Bus1=BT4088.1.2.3.4 phases=3 conn=Delta Model=3 kV=0.38 kW=0.003 pf=1.0 Vminpu=0.92 Vmaxpu=1.50 daily=Flat status=variable 
New Load.BT_56_3294776_M2UB Bus1=BT3609.1.4 phases=1 conn=wye Model=2 kV=0.219 kW=0.165 pf=0.92 Vminpu=0.92 Vmaxpu=1.50 daily=RES_10_Dia_Util status=variable 
New Load.BT_56_3294776_M3UB Bus1=BT3609.1.4 phases=1 conn=wye Model=3 kV=0.219 kW=0.165 pf=0.92 Vminpu=0.92 Vmaxpu=1.50 daily=RES_10_Dia_Util status=variable 
New Load.BT_56_3294776_MedUB Bus1=BT3609.1.4 phases=1 conn=wye Model=3 kV=0.219 kW=0.001 pf=1.0 Vminpu=0.92 Vmaxpu=1.50 daily=Flat status=variable 
New Load.BT_56_331226_M2UB Bus1=BT3222.1.4 phases=1 conn=wye Model=2 kV=0.219 kW=0.201 pf=0.92 Vminpu=0.92 Vmaxpu=1.50 daily=RES_2_Dia_Util status=variable 
New Load.BT_56_331226_M3UB Bus1=BT3222.1.4 phases=1 conn=wye Model=3 kV=0.219 kW=0.201 pf=0.92 Vminpu=0.92 Vmaxpu=1.50 daily=RES_2_Dia_Util status=variable 
New Load.BT_56_331226_MedUB Bus1=BT3222.1.4 phases=1 conn=wye Model=3 kV=0.219 kW=0.0005 pf=1.0 Vminpu=0.92 Vmaxpu=1.50 daily=Flat status=variable 
New Load.BT_56_432453_M2UB Bus1=BT6558.1.4 phases=1 conn=wye Model=2 kV=0.219 kW=0.831 pf=0.92 Vminpu=0.92 Vmaxpu=1.50 daily=RES_2_Dia_Util status=variable 
New Load.BT_56_432453_M3UB Bus1=BT6558.1.4 phases=1 conn=wye Model=3 kV=0.219 kW=0.831 pf=0.92 Vminpu=0.92 Vmaxpu=1.50 daily=RES_2_Dia_Util status=variable 
New Load.BT_56_432453_MedUB Bus1=BT6558.1.4 phases=1 conn=wye Model=3 kV=0.219 kW=0.001 pf=1.0 Vminpu=0.92 Vmaxpu=1.50 daily=Flat status=variable 
New Load.BT_56_489287_M2UB Bus1=BT3862.3.4 phases=1 conn=wye Model=2 kV=0.219 kW=0.133 pf=0.92 Vminpu=0.92 Vmaxpu=1.50 daily=RES_2_Dia_Util status=variable 
New Load.BT_56_489287_M3UB Bus1=BT3862.3.4 phases=1 conn=wye Model=3 kV=0.219 kW=0.133 pf=0.92 Vminpu=0.92 Vmaxpu=1.50 daily=RES_2_Dia_Util status=variable 
New Load.BT_56_489287_MedUB Bus1=BT3862.3.4 phases=1 conn=wye Model=3 kV=0.219 kW=0.001 pf=1.0 Vminpu=0.92 Vmaxpu=1.50 daily=Flat status=variable 
New Load.BT_56_568742_M2UB Bus1=BT5433.3.4 phases=1 conn=wye Model=2 kV=0.219 kW=0.352 pf=0.92 Vminpu=0.92 Vmaxpu=1.50 daily=RES_3_Dia_Util status=variable 
New Load.BT_56_568742_M3UB Bus1=BT5433.3.4 phases=1 conn=wye Model=3 kV=0.219 kW=0.352 pf=0.92 Vminpu=0.92 Vmaxpu=1.50 daily=RES_3_Dia_Util status=variable 
New Load.BT_56_568742_MedUB Bus1=BT5433.3.4 phases=1 conn=wye Model=3 kV=0.219 kW=0.001 pf=1.0 Vminpu=0.92 Vmaxpu=1.50 daily=Flat status=variable 
New Load.BT_56_572293_M2UB Bus1=BT5437.1.4 phases=1 conn=wye Model=2 kV=0.219 kW=0.652 pf=0.92 Vminpu=0.92 Vmaxpu=1.50 daily=RES_3_Dia_Util status=variable 
New Load.BT_56_572293_M3UB Bus1=BT5437.1.4 phases=1 conn=wye Model=3 kV=0.219 kW=0.652 pf=0.92 Vminpu=0.92 Vmaxpu=1.50 daily=RES_3_Dia_Util status=variable 
New Load.BT_56_572293_MedUB Bus1=BT5437.1.4 phases=1 conn=wye Model=3 kV=0.219 kW=0.001 pf=1.0 Vminpu=0.92 Vmaxpu=1.50 daily=Flat status=variable 
New Load.BT_56_584191_M2UB Bus1=BT3397.1.2.4 phases=1 conn=wye Model=2 kV=0.38 kW=0.413 pf=0.92 Vminpu=0.92 Vmaxpu=1.50 daily=RES_3_Dia_Util status=variable 
New Load.BT_56_584191_M3UB Bus1=BT3397.1.2.4 phases=1 conn=wye Model=3 kV=0.38 kW=0.413 pf=0.92 Vminpu=0.92 Vmaxpu=1.50 daily=RES_3_Dia_Util status=variable 
New Load.BT_56_584191_MedUB Bus1=BT3397.1.2.4 phases=1 conn=wye Model=3 kV=0.38 kW=0.002 pf=1.0 Vminpu=0.92 Vmaxpu=1.50 daily=Flat status=variable 
New Load.BT_56_590278_M2UB Bus1=BT4039.2.4 phases=1 conn=wye Model=2 kV=0.219 kW=0.671 pf=0.92 Vminpu=0.92 Vmaxpu=1.50 daily=RES_3_Dia_Util status=variable 
New Load.BT_56_590278_M3UB Bus1=BT4039.2.4 phases=1 conn=wye Model=3 kV=0.219 kW=0.671 pf=0.92 Vminpu=0.92 Vmaxpu=1.50 daily=RES_3_Dia_Util status=variable 
New Load.BT_56_590278_MedUB Bus1=BT4039.2.4 phases=1 conn=wye Model=3 kV=0.219 kW=0.001 pf=1.0 Vminpu=0.92 Vmaxpu=1.50 daily=Flat status=variable 
New Load.BT_56_730039_M2UB Bus1=BT3797.1.4 phases=1 conn=wye Model=2 kV=0.219 kW=0.952 pf=0.92 Vminpu=0.92 Vmaxpu=1.50 daily=RES_3_Dia_Util status=variable 
New Load.BT_56_730039_M3UB Bus1=BT3797.1.4 phases=1 conn=wye Model=3 kV=0.219 kW=0.952 pf=0.92 Vminpu=0.92 Vmaxpu=1.50 daily=RES_3_Dia_Util status=variable 
New Load.BT_56_730039_MedUB Bus1=BT3797.1.4 phases=1 conn=wye Model=3 kV=0.219 kW=0.001 pf=1.0 Vminpu=0.92 Vmaxpu=1.50 daily=Flat status=variable 
New Load.BT_56_814314_M2UB Bus1=BT5548.2.4 phases=1 conn=wye Model=2 kV=0.219 kW=1.411 pf=0.92 Vminpu=0.92 Vmaxpu=1.50 daily=RES_3_Dia_Util status=variable 
New Load.BT_56_814314_M3UB Bus1=BT5548.2.4 phases=1 conn=wye Model=3 kV=0.219 kW=1.411 pf=0.92 Vminpu=0.92 Vmaxpu=1.50 daily=RES_3_Dia_Util status=variable 
New Load.BT_56_814314_MedUB Bus1=BT5548.2.4 phases=1 conn=wye Model=3 kV=0.219 kW=0.001 pf=1.0 Vminpu=0.92 Vmaxpu=1.50 daily=Flat status=variable 
New Load.BT_56_825803_M2UB Bus1=BT3121.1.4 phases=1 conn=wye Model=2 kV=0.219 kW=0.878 pf=0.92 Vminpu=0.92 Vmaxpu=1.50 daily=RES_3_Dia_Util status=variable 
New Load.BT_56_825803_M3UB Bus1=BT3121.1.4 phases=1 conn=wye Model=3 kV=0.219 kW=0.878 pf=0.92 Vminpu=0.92 Vmaxpu=1.50 daily=RES_3_Dia_Util status=variable 
New Load.BT_56_825803_MedUB Bus1=BT3121.1.4 phases=1 conn=wye Model=3 kV=0.219 kW=0.001 pf=1.0 Vminpu=0.92 Vmaxpu=1.50 daily=Flat status=variable 
New Load.BT_56_855015_M2UB Bus1=BT4132.1.2.3.4 phases=3 conn=Delta Model=2 kV=0.38 kW=0.301 pf=0.92 Vminpu=0.92 Vmaxpu=1.50 daily=RES_4_Dia_Util status=variable 
New Load.BT_56_855015_M3UB Bus1=BT4132.1.2.3.4 phases=3 conn=Delta Model=3 kV=0.38 kW=0.301 pf=0.92 Vminpu=0.92 Vmaxpu=1.50 daily=RES_4_Dia_Util status=variable 
New Load.BT_56_855015_MedUB Bus1=BT4132.1.2.3.4 phases=3 conn=Delta Model=3 kV=0.38 kW=0.003 pf=1.0 Vminpu=0.92 Vmaxpu=1.50 daily=Flat status=variable 
New Load.BT_56_877034_M2UB Bus1=BT4202.1.4 phases=1 conn=wye Model=2 kV=0.219 kW=1.036 pf=0.92 Vminpu=0.92 Vmaxpu=1.50 daily=RES_3_Dia_Util status=variable 
New Load.BT_56_877034_M3UB Bus1=BT4202.1.4 phases=1 conn=wye Model=3 kV=0.219 kW=1.036 pf=0.92 Vminpu=0.92 Vmaxpu=1.50 daily=RES_3_Dia_Util status=variable 
New Load.BT_56_877034_MedUB Bus1=BT4202.1.4 phases=1 conn=wye Model=3 kV=0.219 kW=0.001 pf=1.0 Vminpu=0.92 Vmaxpu=1.50 daily=Flat status=variable 
New Load.BT_56_886314_M2UB Bus1=BT3951.2.4 phases=1 conn=wye Model=2 kV=0.219 kW=0.225 pf=0.92 Vminpu=0.92 Vmaxpu=1.50 daily=RES_3_Dia_Util status=variable 
New Load.BT_56_886314_M3UB Bus1=BT3951.2.4 phases=1 conn=wye Model=3 kV=0.219 kW=0.225 pf=0.92 Vminpu=0.92 Vmaxpu=1.50 daily=RES_3_Dia_Util status=variable 
New Load.BT_56_886314_MedUB Bus1=BT3951.2.4 phases=1 conn=wye Model=3 kV=0.219 kW=0.001 pf=1.0 Vminpu=0.92 Vmaxpu=1.50 daily=Flat status=variable 
New Load.BT_56_904125_M2UB Bus1=BT3505.1.2.3.4 phases=3 conn=Delta Model=2 kV=0.38 kW=0.385 pf=0.92 Vminpu=0.92 Vmaxpu=1.50 daily=RES_3_Dia_Util status=variable 
New Load.BT_56_904125_M3UB Bus1=BT3505.1.2.3.4 phases=3 conn=Delta Model=3 kV=0.38 kW=0.385 pf=0.92 Vminpu=0.92 Vmaxpu=1.50 daily=RES_3_Dia_Util status=variable 
New Load.BT_56_904125_MedUB Bus1=BT3505.1.2.3.4 phases=3 conn=Delta Model=3 kV=0.38 kW=0.003 pf=1.0 Vminpu=0.92 Vmaxpu=1.50 daily=Flat status=variable 
New Load.BT_56_937624_M2UB Bus1=BT2967.3.1.4 phases=1 conn=wye Model=2 kV=0.38 kW=0.936 pf=0.92 Vminpu=0.92 Vmaxpu=1.50 daily=RES_4_Dia_Util status=variable 
New Load.BT_56_937624_M3UB Bus1=BT2967.3.1.4 phases=1 conn=wye Model=3 kV=0.38 kW=0.936 pf=0.92 Vminpu=0.92 Vmaxpu=1.50 daily=RES_4_Dia_Util status=variable 
New Load.BT_56_937624_MedUB Bus1=BT2967.3.1.4 phases=1 conn=wye Model=3 kV=0.38 kW=0.002 pf=1.0 Vminpu=0.92 Vmaxpu=1.50 daily=Flat status=variable 
New Load.BT_56_942436_M2UB Bus1=BT2991.3.4 phases=1 conn=wye Model=2 kV=0.219 kW=1.506 pf=0.92 Vminpu=0.92 Vmaxpu=1.50 daily=RES_4_Dia_Util status=variable 
New Load.BT_56_942436_M3UB Bus1=BT2991.3.4 phases=1 conn=wye Model=3 kV=0.219 kW=1.506 pf=0.92 Vminpu=0.92 Vmaxpu=1.50 daily=RES_4_Dia_Util status=variable 
New Load.BT_56_942436_MedUB Bus1=BT2991.3.4 phases=1 conn=wye Model=3 kV=0.219 kW=0.001 pf=1.0 Vminpu=0.92 Vmaxpu=1.50 daily=Flat status=variable 
New Load.BT_56_960965_M2UB Bus1=BT6170.2.4 phases=1 conn=wye Model=2 kV=0.219 kW=0.602 pf=0.92 Vminpu=0.92 Vmaxpu=1.50 daily=RES_4_Dia_Util status=variable 
New Load.BT_56_960965_M3UB Bus1=BT6170.2.4 phases=1 conn=wye Model=3 kV=0.219 kW=0.602 pf=0.92 Vminpu=0.92 Vmaxpu=1.50 daily=RES_4_Dia_Util status=variable 
New Load.BT_56_960965_MedUB Bus1=BT6170.2.4 phases=1 conn=wye Model=3 kV=0.219 kW=0.001 pf=1.0 Vminpu=0.92 Vmaxpu=1.50 daily=Flat status=variable 
