Microgrid_test/CargaIP.dss
New Load.IP_56_16970429_M2  Bus1=BT1576.1.4 phases=1 conn=Wye Model=2 kV=0.219 kW=0.067 pf=0.92 Vminpu=0.92 Vmaxpu=1.50 daily=IP_1_Dia_util status=variable 
New Load.IP_56_16970429_M3  Bus1=BT1576.1.4 phases=1 conn=Wye Model=3 kV=0.219 kW=0.067 pf=0.92 Vminpu=0.92 Vmaxpu=1.50 daily=IP_1_Dia_util status=variable 
New Load.IP_56_16970430_M2  Bus1=BT2461.1.4 phases=1 conn=Wye Model=2 kV=0.219 kW=0.067 pf=0.92 Vminpu=0.92 Vmaxpu=1.50 daily=IP_1_Dia_util status=variable 
New Load.IP_56_16970430_M3  Bus1=BT2461.1.4 phases=1 conn=Wye Model=3 kV=0.219 kW=0.067 pf=0.92 Vminpu=0.92 Vmaxpu=1.50 daily=IP_1_Dia_util status=variable 
New Load.IP_56_16970493_M2  Bus1=BT2677.1.4 phases=1 conn=Wye Model=2 kV=0.219 kW=0.067 pf=0.92 Vminpu=0.92 Vmaxpu=1.50 daily=IP_1_Dia_util status=variable 
New Load.IP_56_16970493_M3  Bus1=BT2677.1.4 phases=1 conn=Wye Model=3 kV=0.219 kW=0.067 pf=0.92 Vminpu=0.92 Vmaxpu=1.50 daily=IP_1_Dia_util status=variable 
New Load.IP_56_16970494_M2  Bus1=BT2439.1.4 phases=1 conn=Wye Model=2 kV=0.219 kW=0.067 pf=0.92 Vminpu=0.92 Vmaxpu=1.50 daily=IP_1_Dia_util status=variable 
New Load.IP_56_16970494_M3  Bus1=BT2439.1.4 phases=1 conn=Wye Model=3 kV=0.219 kW=0.067 pf=0.92 Vminpu=0.92 Vmaxpu=1.50 daily=IP_1_Dia_util status=variable 
New Load.IP_56_16970495_M2  Bus1=BT1840.1.4 phases=1 conn=Wye Model=2 kV=0.219 kW=0.067 pf=0.92 Vminpu=0.92 Vmaxpu=1.50 daily=IP_1_Dia_util status=variable 
New Load.IP_56_16970495_M3  Bus1=BT1840.1.4 phases=1 conn=Wye Model=3 kV=0.219 kW=0.067 pf=0.92 Vminpu=0.92 Vmaxpu=1.50 daily=IP_1_Dia_util status=variable 
New Load.IP_56_16970496_M2  Bus1=BT1840.1.4 phases=1 conn=Wye Model=2 kV=0.219 kW=0.067 pf=0.92 Vminpu=0.92 Vmaxpu=1.50 daily=IP_1_Dia_util status=variable 
New Load.IP_56_16970496_M3  Bus1=BT1840.1.4 phases=1 conn=Wye Model=3 kV=0.219 kW=0.067 pf=0.92 Vminpu=0.92 Vmaxpu=1.50 daily=IP_1_Dia_util status=variable 
New Load.IP_56_16969938_M2  Bus1=BT2463.3.4 phases=1 conn=Wye Model=2 kV=0.219 kW=0.067 pf=0.92 Vminpu=0.92 Vmaxpu=1.50 daily=IP_1_Dia_util status=variable 
New Load.IP_56_16969938_M3  Bus1=BT2463.3.4 phases=1 conn=Wye Model=3 kV=0.219 kW=0.067 pf=0.92 Vminpu=0.92 Vmaxpu=1.50 daily=IP_1_Dia_util status=variable 
New Load.IP_56_16969941_M2  Bus1=BT2677.3.4 phases=1 conn=Wye Model=2 kV=0.219 kW=0.067 pf=0.92 Vminpu=0.92 Vmaxpu=1.50 daily=IP_1_Dia_util status=variable 
New Load.IP_56_16969941_M3  Bus1=BT2677.3.4 phases=1 conn=Wye Model=3 kV=0.219 kW=0.067 pf=0.92 Vminpu=0.92 Vmaxpu=1.50 daily=IP_1_Dia_util status=variable 
New Load.IP_56_16969942_M2  Bus1=BT2683.3.4 phases=1 conn=Wye Model=2 kV=0.219 kW=0.067 pf=0.92 Vminpu=0.92 Vmaxpu=1.50 daily=IP_1_Dia_util status=variable 
New Load.IP_56_16969942_M3  Bus1=BT2683.3.4 phases=1 conn=Wye Model=3 kV=0.219 kW=0.067 pf=0.92 Vminpu=0.92 Vmaxpu=1.50 daily=IP_1_Dia_util status=variable 
New Load.IP_56_16969943_M2  Bus1=BT1923.3.4 phases=1 conn=Wye Model=2 kV=0.219 kW=0.067 pf=0.92 Vminpu=0.92 Vmaxpu=1.50 daily=IP_1_Dia_util status=variable 
New Load.IP_56_16969943_M3  Bus1=BT1923.3.4 phases=1 conn=Wye Model=3 kV=0.219 kW=0.067 pf=0.92 Vminpu=0.92 Vmaxpu=1.50 daily=IP_1_Dia_util status=variable 
New Load.IP_56_16969944_M2  Bus1=BT1575.3.4 phases=1 conn=Wye Model=2 kV=0.219 kW=0.067 pf=0.92 Vminpu=0.92 Vmaxpu=1.50 daily=IP_1_Dia_util status=variable 
New Load.IP_56_16969944_M3  Bus1=BT1575.3.4 phases=1 conn=Wye Model=3 kV=0.219 kW=0.067 pf=0.92 Vminpu=0.92 Vmaxpu=1.50 daily=IP_1_Dia_util status=variable 
New Load.IP_56_16969945_M2  Bus1=BT1808.3.4 phases=1 conn=Wye Model=2 kV=0.219 kW=0.067 pf=0.92 Vminpu=0.92 Vmaxpu=1.50 daily=IP_1_Dia_util status=variable 
New Load.IP_56_16969945_M3  Bus1=BT1808.3.4 phases=1 conn=Wye Model=3 kV=0.219 kW=0.067 pf=0.92 Vminpu=0.92 Vmaxpu=1.50 daily=IP_1_Dia_util status=variable 
New Load.IP_56_16969950_M2  Bus1=BT1922.3.4 phases=1 conn=Wye Model=2 kV=0.219 kW=0.067 pf=0.92 Vminpu=0.92 Vmaxpu=1.50 daily=IP_1_Dia_util status=variable 
New Load.IP_56_16969950_M3  Bus1=BT1922.3.4 phases=1 conn=Wye Model=3 kV=0.219 kW=0.067 pf=0.92 Vminpu=0.92 Vmaxpu=1.50 daily=IP_1_Dia_util status=variable 
New Load.IP_56_16968690_M2  Bus1=BT2439.2.4 phases=1 conn=Wye Model=2 kV=0.219 kW=0.067 pf=0.92 Vminpu=0.92 Vmaxpu=1.50 daily=IP_1_Dia_util status=variable 
New Load.IP_56_16968690_M3  Bus1=BT2439.2.4 phases=1 conn=Wye Model=3 kV=0.219 kW=0.067 pf=0.92 Vminpu=0.92 Vmaxpu=1.50 daily=IP_1_Dia_util status=variable 
New Load.IP_56_16968691_M2  Bus1=BT1922.2.4 phases=1 conn=Wye Model=2 kV=0.219 kW=0.067 pf=0.92 Vminpu=0.92 Vmaxpu=1.50 daily=IP_1_Dia_util status=variable 
New Load.IP_56_16968691_M3  Bus1=BT1922.2.4 phases=1 conn=Wye Model=3 kV=0.219 kW=0.067 pf=0.92 Vminpu=0.92 Vmaxpu=1.50 daily=IP_1_Dia_util status=variable 
New Load.IP_56_16968692_M2  Bus1=BT1808.2.4 phases=1 conn=Wye Model=2 kV=0.219 kW=0.067 pf=0.92 Vminpu=0.92 Vmaxpu=1.50 daily=IP_1_Dia_util status=variable 
New Load.IP_56_16968692_M3  Bus1=BT1808.2.4 phases=1 conn=Wye Model=3 kV=0.219 kW=0.067 pf=0.92 Vminpu=0.92 Vmaxpu=1.50 daily=IP_1_Dia_util status=variable 
New Load.IP_56_16968693_M2  Bus1=BT1809.2.4 phases=1 conn=Wye Model=2 kV=0.219 kW=0.067 pf=0.92 Vminpu=0.92 Vmaxpu=1.50 daily=IP_1_Dia_util status=variable 
New Load.IP_56_16968693_M3  Bus1=BT1809.2.4 phases=1 conn=Wye Model=3 kV=0.219 kW=0.067 pf=0.92 Vminpu=0.92 Vmaxpu=1.50 daily=IP_1_Dia_util status=variable 
New Load.IP_56_16968689_M2  Bus1=BT2441.2.4 phases=1 conn=Wye Model=2 kV=0.219 kW=0.067 pf=0.92 Vminpu=0.92 Vmaxpu=1.50 daily=IP_1_Dia_util status=variable 
New Load.IP_56_16968689_M3  Bus1=BT2441.2.4 phases=1 conn=Wye Model=3 kV=0.219 kW=0.067 pf=0.92 Vminpu=0.92 Vmaxpu=1.50 daily=IP_1_Dia_util status=variable 
New Load.IP_56_16969374_M2  Bus1=BT1922.2.4 phases=1 conn=Wye Model=2 kV=0.219 kW=0.067 pf=0.92 Vminpu=0.92 Vmaxpu=1.50 daily=IP_1_Dia_util status=variable 
New Load.IP_56_16969374_M3  Bus1=BT1922.2.4 phases=1 conn=Wye Model=3 kV=0.219 kW=0.067 pf=0.92 Vminpu=0.92 Vmaxpu=1.50 daily=IP_1_Dia_util status=variable 
New Load.IP_56_16969444_M2  Bus1=BT2464.1.4 phases=1 conn=Wye Model=2 kV=0.219 kW=0.067 pf=0.92 Vminpu=0.92 Vmaxpu=1.50 daily=IP_1_Dia_util status=variable 
New Load.IP_56_16969444_M3  Bus1=BT2464.1.4 phases=1 conn=Wye Model=3 kV=0.219 kW=0.067 pf=0.92 Vminpu=0.92 Vmaxpu=1.50 daily=IP_1_Dia_util status=variable 
